[root]
type=Root
children=system
eventq_index=0
full_system=false
sim_quantum=0
time_sync_enable=false
time_sync_period=100000000000
time_sync_spin_threshold=100000000

[system]
type=System
children=cache_hierarchy clk_domain dvfs_handler memory processor workload
auto_unlink_shared_backstore=false
cache_line_size=64
eventq_index=0
exit_on_work_items=true
init_param=0
m5ops_base=0
mem_mode=atomic
mem_ranges=0:33554432
memories=system.memory.mem_ctrl.dram
mmap_using_noreserve=false
multi_thread=false
num_work_ids=16
readfile=
redirect_paths=
shadow_rom_ranges=
shared_backstore=
symbolfile=
thermal_components=
thermal_model=Null
work_begin_ckpt_count=0
work_begin_cpu_id_exit=-1
work_begin_exit_count=0
work_cpus_ckpt_count=0
work_end_ckpt_count=0
work_end_exit_count=0
work_item_id=-1
workload=system.workload
system_port=system.cache_hierarchy.membus.cpu_side_ports[0]

[system.cache_hierarchy]
type=SubSystem
children=dptw_caches iptw_caches l1dcaches l1icaches l2buses l2caches membus
eventq_index=0
thermal_domain=Null

[system.cache_hierarchy.dptw_caches]
type=Cache
children=power_state replacement_policy tags
addr_ranges=0:18446744073709551615
assoc=4
clk_domain=system.clk_domain
clusivity=mostly_incl
compressor=Null
data_latency=1
demand_mshr_reserve=1
eventq_index=0
is_read_only=false
max_miss_count=0
move_contractions=true
mshrs=20
power_model=
power_state=system.cache_hierarchy.dptw_caches.power_state
prefetch_on_access=false
prefetch_on_pf_hit=false
prefetcher=Null
replace_expansions=true
replacement_policy=system.cache_hierarchy.dptw_caches.replacement_policy
response_latency=1
sequential_access=false
size=8192
system=system
tag_latency=1
tags=system.cache_hierarchy.dptw_caches.tags
tgts_per_mshr=12
warmup_percentage=0
write_allocator=Null
write_buffers=8
writeback_clean=true
cpu_side=system.processor.cores.core.mmu.dtb.walker.port
mem_side=system.cache_hierarchy.l2buses.cpu_side_ports[3]

[system.cache_hierarchy.dptw_caches.power_state]
type=PowerState
clk_gate_bins=20
clk_gate_max=1000000000000
clk_gate_min=1000
default_state=UNDEFINED
eventq_index=0
leaders=
possible_states=

[system.cache_hierarchy.dptw_caches.replacement_policy]
type=LRURP
eventq_index=0

[system.cache_hierarchy.dptw_caches.tags]
type=BaseSetAssoc
children=indexing_policy power_state
assoc=4
block_size=64
clk_domain=system.clk_domain
entry_size=64
eventq_index=0
indexing_policy=system.cache_hierarchy.dptw_caches.tags.indexing_policy
power_model=
power_state=system.cache_hierarchy.dptw_caches.tags.power_state
replacement_policy=system.cache_hierarchy.dptw_caches.replacement_policy
sequential_access=false
size=8192
system=system
tag_latency=1
warmup_percentage=0

[system.cache_hierarchy.dptw_caches.tags.indexing_policy]
type=SetAssociative
assoc=4
entry_size=64
eventq_index=0
size=8192

[system.cache_hierarchy.dptw_caches.tags.power_state]
type=PowerState
clk_gate_bins=20
clk_gate_max=1000000000000
clk_gate_min=1000
default_state=UNDEFINED
eventq_index=0
leaders=
possible_states=

[system.cache_hierarchy.iptw_caches]
type=Cache
children=power_state replacement_policy tags
addr_ranges=0:18446744073709551615
assoc=4
clk_domain=system.clk_domain
clusivity=mostly_incl
compressor=Null
data_latency=1
demand_mshr_reserve=1
eventq_index=0
is_read_only=false
max_miss_count=0
move_contractions=true
mshrs=20
power_model=
power_state=system.cache_hierarchy.iptw_caches.power_state
prefetch_on_access=false
prefetch_on_pf_hit=false
prefetcher=Null
replace_expansions=true
replacement_policy=system.cache_hierarchy.iptw_caches.replacement_policy
response_latency=1
sequential_access=false
size=8192
system=system
tag_latency=1
tags=system.cache_hierarchy.iptw_caches.tags
tgts_per_mshr=12
warmup_percentage=0
write_allocator=Null
write_buffers=8
writeback_clean=true
cpu_side=system.processor.cores.core.mmu.itb.walker.port
mem_side=system.cache_hierarchy.l2buses.cpu_side_ports[2]

[system.cache_hierarchy.iptw_caches.power_state]
type=PowerState
clk_gate_bins=20
clk_gate_max=1000000000000
clk_gate_min=1000
default_state=UNDEFINED
eventq_index=0
leaders=
possible_states=

[system.cache_hierarchy.iptw_caches.replacement_policy]
type=LRURP
eventq_index=0

[system.cache_hierarchy.iptw_caches.tags]
type=BaseSetAssoc
children=indexing_policy power_state
assoc=4
block_size=64
clk_domain=system.clk_domain
entry_size=64
eventq_index=0
indexing_policy=system.cache_hierarchy.iptw_caches.tags.indexing_policy
power_model=
power_state=system.cache_hierarchy.iptw_caches.tags.power_state
replacement_policy=system.cache_hierarchy.iptw_caches.replacement_policy
sequential_access=false
size=8192
system=system
tag_latency=1
warmup_percentage=0

[system.cache_hierarchy.iptw_caches.tags.indexing_policy]
type=SetAssociative
assoc=4
entry_size=64
eventq_index=0
size=8192

[system.cache_hierarchy.iptw_caches.tags.power_state]
type=PowerState
clk_gate_bins=20
clk_gate_max=1000000000000
clk_gate_min=1000
default_state=UNDEFINED
eventq_index=0
leaders=
possible_states=

[system.cache_hierarchy.l1dcaches]
type=Cache
children=power_state prefetcher replacement_policy tags
addr_ranges=0:18446744073709551615
assoc=8
clk_domain=system.clk_domain
clusivity=mostly_incl
compressor=Null
data_latency=1
demand_mshr_reserve=1
eventq_index=0
is_read_only=false
max_miss_count=0
move_contractions=true
mshrs=16
power_model=
power_state=system.cache_hierarchy.l1dcaches.power_state
prefetch_on_access=false
prefetch_on_pf_hit=false
prefetcher=system.cache_hierarchy.l1dcaches.prefetcher
replace_expansions=true
replacement_policy=system.cache_hierarchy.l1dcaches.replacement_policy
response_latency=1
sequential_access=false
size=16384
system=system
tag_latency=1
tags=system.cache_hierarchy.l1dcaches.tags
tgts_per_mshr=20
warmup_percentage=0
write_allocator=Null
write_buffers=8
writeback_clean=false
cpu_side=system.processor.cores.core.dcache_port
mem_side=system.cache_hierarchy.l2buses.cpu_side_ports[1]

[system.cache_hierarchy.l1dcaches.power_state]
type=PowerState
clk_gate_bins=20
clk_gate_max=1000000000000
clk_gate_min=1000
default_state=UNDEFINED
eventq_index=0
leaders=
possible_states=

[system.cache_hierarchy.l1dcaches.prefetcher]
type=StridePrefetcher
children=power_state table_indexing_policy table_replacement_policy
block_size=64
cache_snoop=false
clk_domain=system.clk_domain
confidence_counter_bits=3
confidence_threshold=50
degree=4
eventq_index=0
initial_confidence=4
latency=1
max_prefetch_requests_with_pending_translation=32
on_data=true
on_inst=false
on_miss=false
on_read=true
on_write=true
page_bytes=4096
power_model=
power_state=system.cache_hierarchy.l1dcaches.prefetcher.power_state
prefetch_on_access=false
prefetch_on_pf_hit=false
queue_filter=true
queue_size=32
queue_squash=true
sys=system
table_assoc=4
table_entries=64
table_indexing_policy=system.cache_hierarchy.l1dcaches.prefetcher.table_indexing_policy
table_replacement_policy=system.cache_hierarchy.l1dcaches.prefetcher.table_replacement_policy
tag_prefetch=true
throttle_control_percentage=0
use_requestor_id=true
use_virtual_addresses=false

[system.cache_hierarchy.l1dcaches.prefetcher.power_state]
type=PowerState
clk_gate_bins=20
clk_gate_max=1000000000000
clk_gate_min=1000
default_state=UNDEFINED
eventq_index=0
leaders=
possible_states=

[system.cache_hierarchy.l1dcaches.prefetcher.table_indexing_policy]
type=StridePrefetcherHashedSetAssociative
assoc=4
entry_size=1
eventq_index=0
size=64

[system.cache_hierarchy.l1dcaches.prefetcher.table_replacement_policy]
type=RandomRP
eventq_index=0

[system.cache_hierarchy.l1dcaches.replacement_policy]
type=LRURP
eventq_index=0

[system.cache_hierarchy.l1dcaches.tags]
type=BaseSetAssoc
children=indexing_policy power_state
assoc=8
block_size=64
clk_domain=system.clk_domain
entry_size=64
eventq_index=0
indexing_policy=system.cache_hierarchy.l1dcaches.tags.indexing_policy
power_model=
power_state=system.cache_hierarchy.l1dcaches.tags.power_state
replacement_policy=system.cache_hierarchy.l1dcaches.replacement_policy
sequential_access=false
size=16384
system=system
tag_latency=1
warmup_percentage=0

[system.cache_hierarchy.l1dcaches.tags.indexing_policy]
type=SetAssociative
assoc=8
entry_size=64
eventq_index=0
size=16384

[system.cache_hierarchy.l1dcaches.tags.power_state]
type=PowerState
clk_gate_bins=20
clk_gate_max=1000000000000
clk_gate_min=1000
default_state=UNDEFINED
eventq_index=0
leaders=
possible_states=

[system.cache_hierarchy.l1icaches]
type=Cache
children=power_state prefetcher replacement_policy tags
addr_ranges=0:18446744073709551615
assoc=8
clk_domain=system.clk_domain
clusivity=mostly_incl
compressor=Null
data_latency=1
demand_mshr_reserve=1
eventq_index=0
is_read_only=false
max_miss_count=0
move_contractions=true
mshrs=16
power_model=
power_state=system.cache_hierarchy.l1icaches.power_state
prefetch_on_access=false
prefetch_on_pf_hit=false
prefetcher=system.cache_hierarchy.l1icaches.prefetcher
replace_expansions=true
replacement_policy=system.cache_hierarchy.l1icaches.replacement_policy
response_latency=1
sequential_access=false
size=16384
system=system
tag_latency=1
tags=system.cache_hierarchy.l1icaches.tags
tgts_per_mshr=20
warmup_percentage=0
write_allocator=Null
write_buffers=8
writeback_clean=true
cpu_side=system.processor.cores.core.icache_port
mem_side=system.cache_hierarchy.l2buses.cpu_side_ports[0]

[system.cache_hierarchy.l1icaches.power_state]
type=PowerState
clk_gate_bins=20
clk_gate_max=1000000000000
clk_gate_min=1000
default_state=UNDEFINED
eventq_index=0
leaders=
possible_states=

[system.cache_hierarchy.l1icaches.prefetcher]
type=StridePrefetcher
children=power_state table_indexing_policy table_replacement_policy
block_size=64
cache_snoop=false
clk_domain=system.clk_domain
confidence_counter_bits=3
confidence_threshold=50
degree=4
eventq_index=0
initial_confidence=4
latency=1
max_prefetch_requests_with_pending_translation=32
on_data=true
on_inst=false
on_miss=false
on_read=true
on_write=true
page_bytes=4096
power_model=
power_state=system.cache_hierarchy.l1icaches.prefetcher.power_state
prefetch_on_access=false
prefetch_on_pf_hit=false
queue_filter=true
queue_size=32
queue_squash=true
sys=system
table_assoc=4
table_entries=64
table_indexing_policy=system.cache_hierarchy.l1icaches.prefetcher.table_indexing_policy
table_replacement_policy=system.cache_hierarchy.l1icaches.prefetcher.table_replacement_policy
tag_prefetch=true
throttle_control_percentage=0
use_requestor_id=true
use_virtual_addresses=false

[system.cache_hierarchy.l1icaches.prefetcher.power_state]
type=PowerState
clk_gate_bins=20
clk_gate_max=1000000000000
clk_gate_min=1000
default_state=UNDEFINED
eventq_index=0
leaders=
possible_states=

[system.cache_hierarchy.l1icaches.prefetcher.table_indexing_policy]
type=StridePrefetcherHashedSetAssociative
assoc=4
entry_size=1
eventq_index=0
size=64

[system.cache_hierarchy.l1icaches.prefetcher.table_replacement_policy]
type=RandomRP
eventq_index=0

[system.cache_hierarchy.l1icaches.replacement_policy]
type=LRURP
eventq_index=0

[system.cache_hierarchy.l1icaches.tags]
type=BaseSetAssoc
children=indexing_policy power_state
assoc=8
block_size=64
clk_domain=system.clk_domain
entry_size=64
eventq_index=0
indexing_policy=system.cache_hierarchy.l1icaches.tags.indexing_policy
power_model=
power_state=system.cache_hierarchy.l1icaches.tags.power_state
replacement_policy=system.cache_hierarchy.l1icaches.replacement_policy
sequential_access=false
size=16384
system=system
tag_latency=1
warmup_percentage=0

[system.cache_hierarchy.l1icaches.tags.indexing_policy]
type=SetAssociative
assoc=8
entry_size=64
eventq_index=0
size=16384

[system.cache_hierarchy.l1icaches.tags.power_state]
type=PowerState
clk_gate_bins=20
clk_gate_max=1000000000000
clk_gate_min=1000
default_state=UNDEFINED
eventq_index=0
leaders=
possible_states=

[system.cache_hierarchy.l2buses]
type=CoherentXBar
children=power_state snoop_filter
clk_domain=system.clk_domain
eventq_index=0
forward_latency=0
frontend_latency=1
header_latency=1
max_outstanding_snoops=512
max_routing_table_size=512
point_of_coherency=false
point_of_unification=true
power_model=
power_state=system.cache_hierarchy.l2buses.power_state
response_latency=1
snoop_filter=system.cache_hierarchy.l2buses.snoop_filter
snoop_response_latency=1
system=system
use_default_range=false
width=32
cpu_side_ports=system.cache_hierarchy.l1icaches.mem_side system.cache_hierarchy.l1dcaches.mem_side system.cache_hierarchy.iptw_caches.mem_side system.cache_hierarchy.dptw_caches.mem_side
mem_side_ports=system.cache_hierarchy.l2caches.cpu_side

[system.cache_hierarchy.l2buses.power_state]
type=PowerState
clk_gate_bins=20
clk_gate_max=1000000000000
clk_gate_min=1000
default_state=UNDEFINED
eventq_index=0
leaders=
possible_states=

[system.cache_hierarchy.l2buses.snoop_filter]
type=SnoopFilter
eventq_index=0
lookup_latency=0
max_capacity=8388608
system=system

[system.cache_hierarchy.l2caches]
type=Cache
children=power_state prefetcher replacement_policy tags
addr_ranges=0:18446744073709551615
assoc=16
clk_domain=system.clk_domain
clusivity=mostly_incl
compressor=Null
data_latency=10
demand_mshr_reserve=1
eventq_index=0
is_read_only=false
max_miss_count=0
move_contractions=true
mshrs=20
power_model=
power_state=system.cache_hierarchy.l2caches.power_state
prefetch_on_access=false
prefetch_on_pf_hit=false
prefetcher=system.cache_hierarchy.l2caches.prefetcher
replace_expansions=true
replacement_policy=system.cache_hierarchy.l2caches.replacement_policy
response_latency=1
sequential_access=false
size=262144
system=system
tag_latency=10
tags=system.cache_hierarchy.l2caches.tags
tgts_per_mshr=12
warmup_percentage=0
write_allocator=Null
write_buffers=8
writeback_clean=false
cpu_side=system.cache_hierarchy.l2buses.mem_side_ports[0]
mem_side=system.cache_hierarchy.membus.cpu_side_ports[1]

[system.cache_hierarchy.l2caches.power_state]
type=PowerState
clk_gate_bins=20
clk_gate_max=1000000000000
clk_gate_min=1000
default_state=UNDEFINED
eventq_index=0
leaders=
possible_states=

[system.cache_hierarchy.l2caches.prefetcher]
type=StridePrefetcher
children=power_state table_indexing_policy table_replacement_policy
block_size=64
cache_snoop=false
clk_domain=system.clk_domain
confidence_counter_bits=3
confidence_threshold=50
degree=4
eventq_index=0
initial_confidence=4
latency=1
max_prefetch_requests_with_pending_translation=32
on_data=true
on_inst=false
on_miss=false
on_read=true
on_write=true
page_bytes=4096
power_model=
power_state=system.cache_hierarchy.l2caches.prefetcher.power_state
prefetch_on_access=false
prefetch_on_pf_hit=false
queue_filter=true
queue_size=32
queue_squash=true
sys=system
table_assoc=4
table_entries=64
table_indexing_policy=system.cache_hierarchy.l2caches.prefetcher.table_indexing_policy
table_replacement_policy=system.cache_hierarchy.l2caches.prefetcher.table_replacement_policy
tag_prefetch=true
throttle_control_percentage=0
use_requestor_id=true
use_virtual_addresses=false

[system.cache_hierarchy.l2caches.prefetcher.power_state]
type=PowerState
clk_gate_bins=20
clk_gate_max=1000000000000
clk_gate_min=1000
default_state=UNDEFINED
eventq_index=0
leaders=
possible_states=

[system.cache_hierarchy.l2caches.prefetcher.table_indexing_policy]
type=StridePrefetcherHashedSetAssociative
assoc=4
entry_size=1
eventq_index=0
size=64

[system.cache_hierarchy.l2caches.prefetcher.table_replacement_policy]
type=RandomRP
eventq_index=0

[system.cache_hierarchy.l2caches.replacement_policy]
type=LRURP
eventq_index=0

[system.cache_hierarchy.l2caches.tags]
type=BaseSetAssoc
children=indexing_policy power_state
assoc=16
block_size=64
clk_domain=system.clk_domain
entry_size=64
eventq_index=0
indexing_policy=system.cache_hierarchy.l2caches.tags.indexing_policy
power_model=
power_state=system.cache_hierarchy.l2caches.tags.power_state
replacement_policy=system.cache_hierarchy.l2caches.replacement_policy
sequential_access=false
size=262144
system=system
tag_latency=10
warmup_percentage=0

[system.cache_hierarchy.l2caches.tags.indexing_policy]
type=SetAssociative
assoc=16
entry_size=64
eventq_index=0
size=262144

[system.cache_hierarchy.l2caches.tags.power_state]
type=PowerState
clk_gate_bins=20
clk_gate_max=1000000000000
clk_gate_min=1000
default_state=UNDEFINED
eventq_index=0
leaders=
possible_states=

[system.cache_hierarchy.membus]
type=CoherentXBar
children=badaddr_responder power_state snoop_filter
clk_domain=system.clk_domain
eventq_index=0
forward_latency=4
frontend_latency=3
header_latency=1
max_outstanding_snoops=512
max_routing_table_size=512
point_of_coherency=true
point_of_unification=true
power_model=
power_state=system.cache_hierarchy.membus.power_state
response_latency=2
snoop_filter=system.cache_hierarchy.membus.snoop_filter
snoop_response_latency=4
system=system
use_default_range=false
width=64
cpu_side_ports=system.system_port system.cache_hierarchy.l2caches.mem_side system.processor.cores.core.interrupts.int_requestor
default=system.cache_hierarchy.membus.badaddr_responder.pio
mem_side_ports=system.memory.mem_ctrl.port system.processor.cores.core.interrupts.pio system.processor.cores.core.interrupts.int_responder

[system.cache_hierarchy.membus.badaddr_responder]
type=IsaFake
children=power_state
clk_domain=system.clk_domain
eventq_index=0
fake_mem=false
pio_addr=0
pio_latency=100000
pio_size=8
power_model=
power_state=system.cache_hierarchy.membus.badaddr_responder.power_state
ret_bad_addr=true
ret_data16=65535
ret_data32=4294967295
ret_data64=18446744073709551615
ret_data8=255
system=system
update_data=false
warn_access=
pio=system.cache_hierarchy.membus.default

[system.cache_hierarchy.membus.badaddr_responder.power_state]
type=PowerState
clk_gate_bins=20
clk_gate_max=1000000000000
clk_gate_min=1000
default_state=UNDEFINED
eventq_index=0
leaders=
possible_states=

[system.cache_hierarchy.membus.power_state]
type=PowerState
clk_gate_bins=20
clk_gate_max=1000000000000
clk_gate_min=1000
default_state=UNDEFINED
eventq_index=0
leaders=
possible_states=

[system.cache_hierarchy.membus.snoop_filter]
type=SnoopFilter
eventq_index=0
lookup_latency=1
max_capacity=8388608
system=system

[system.clk_domain]
type=SrcClockDomain
children=voltage_domain
clock=333
domain_id=-1
eventq_index=0
init_perf_level=0
voltage_domain=system.clk_domain.voltage_domain

[system.clk_domain.voltage_domain]
type=VoltageDomain
eventq_index=0
voltage=1.0

[system.dvfs_handler]
type=DVFSHandler
domains=
enable=false
eventq_index=0
sys_clk_domain=system.clk_domain
transition_latency=100000000

[system.memory]
type=SubSystem
children=mem_ctrl
eventq_index=0
thermal_domain=Null

[system.memory.mem_ctrl]
type=MemCtrl
children=dram power_state
clk_domain=system.clk_domain
command_window=10000
disable_sanity_check=false
dram=system.memory.mem_ctrl.dram
eventq_index=0
mem_sched_policy=frfcfs
min_reads_per_switch=16
min_writes_per_switch=16
power_model=
power_state=system.memory.mem_ctrl.power_state
qos_policy=Null
qos_priorities=1
qos_priority_escalation=false
qos_q_policy=fifo
qos_requestors=               
qos_syncro_scheduler=false
qos_turnaround_policy=Null
static_backend_latency=10000
static_frontend_latency=10000
system=system
write_high_thresh_perc=85
write_low_thresh_perc=50
port=system.cache_hierarchy.membus.mem_side_ports[0]

[system.memory.mem_ctrl.dram]
type=DRAMInterface
children=power_state
IDD0=0.055
IDD02=0.0
IDD2N=0.032
IDD2N2=0.0
IDD2P0=0.0
IDD2P02=0.0
IDD2P1=0.032
IDD2P12=0.0
IDD3N=0.038
IDD3N2=0.0
IDD3P0=0.0
IDD3P02=0.0
IDD3P1=0.038
IDD3P12=0.0
IDD4R=0.157
IDD4R2=0.0
IDD4W=0.125
IDD4W2=0.0
IDD5=0.23500000000000001
IDD52=0.0
IDD6=0.02
IDD62=0.0
VDD=1.5
VDD2=0.0
activation_limit=4
addr_mapping=RoRaBaCoCh
bank_groups_per_rank=0
banks_per_rank=8
beats_per_clock=2
burst_length=8
clk_domain=system.clk_domain
conf_table_reported=true
data_clock_sync=false
device_bus_width=8
device_rowbuffer_size=1024
device_size=536870912
devices_per_rank=8
dll=true
enable_dram_powerdown=false
eventq_index=0
image_file=
in_addr_map=true
kvm_map=true
max_accesses_per_row=16
null=false
page_policy=open_adaptive
power_model=
power_state=system.memory.mem_ctrl.dram.power_state
range=0:33554432
ranks_per_channel=2
read_buffer_size=32
tAAD=1250
tBURST=5000
tBURST_MAX=5000
tBURST_MIN=5000
tCCD_L=0
tCCD_L_WR=0
tCK=1250
tCL=13750
tCS=2500
tCWL=13750
tPPD=0
tRAS=35000
tRCD=13750
tRCD_WR=13750
tREFI=7800000
tRFC=260000
tRP=13750
tRRD=6000
tRRD_L=0
tRTP=7500
tRTW=2500
tWR=15000
tWTR=7500
tWTR_L=7500
tXAW=30000
tXP=6000
tXPDLL=0
tXS=270000
tXSDLL=0
two_cycle_activate=false
write_buffer_size=64
writeable=true

[system.memory.mem_ctrl.dram.power_state]
type=PowerState
clk_gate_bins=20
clk_gate_max=1000000000000
clk_gate_min=1000
default_state=UNDEFINED
eventq_index=0
leaders=
possible_states=

[system.memory.mem_ctrl.power_state]
type=PowerState
clk_gate_bins=20
clk_gate_max=1000000000000
clk_gate_min=1000
default_state=UNDEFINED
eventq_index=0
leaders=
possible_states=

[system.processor]
type=SubSystem
children=cores
eventq_index=0
thermal_domain=Null

[system.processor.cores]
type=SubSystem
children=core
eventq_index=0
thermal_domain=Null

[system.processor.cores.core]
type=BaseAtomicSimpleCPU
children=decoder interrupts isa mmu power_state tracer workload
branchPred=Null
checker=Null
clk_domain=system.clk_domain
cpu_id=0
decoder=system.processor.cores.core.decoder
do_checkpoint_insts=true
do_statistics_insts=true
eventq_index=0
function_trace=false
function_trace_start=0
interrupts=system.processor.cores.core.interrupts
isa=system.processor.cores.core.isa
max_insts_all_threads=0
max_insts_any_thread=0
mmu=system.processor.cores.core.mmu
numThreads=1
power_gating_on_idle=false
power_model=
power_state=system.processor.cores.core.power_state
progress_interval=0
pwr_gating_latency=300
simpoint_start_insts=
simulate_data_stalls=false
simulate_inst_stalls=false
socket_id=0
switched_out=false
syscallRetryLatency=10000
system=system
tracer=system.processor.cores.core.tracer
width=1
workload=system.processor.cores.core.workload
dcache_port=system.cache_hierarchy.l1dcaches.cpu_side
icache_port=system.cache_hierarchy.l1icaches.cpu_side

[system.processor.cores.core.decoder]
type=X86Decoder
eventq_index=0
isa=system.processor.cores.core.isa

[system.processor.cores.core.interrupts]
type=X86LocalApic
children=clk_domain
clk_domain=system.processor.cores.core.interrupts.clk_domain
eventq_index=0
int_latency=1000
pio_latency=100000
system=system
int_requestor=system.cache_hierarchy.membus.cpu_side_ports[2]
int_responder=system.cache_hierarchy.membus.mem_side_ports[2]
pio=system.cache_hierarchy.membus.mem_side_ports[1]

[system.processor.cores.core.interrupts.clk_domain]
type=DerivedClockDomain
clk_divider=16
clk_domain=system.clk_domain
eventq_index=0

[system.processor.cores.core.isa]
type=X86ISA
eventq_index=0
vendor_string=HygonGenuine

[system.processor.cores.core.mmu]
type=X86MMU
children=dtb itb
dtb=system.processor.cores.core.mmu.dtb
eventq_index=0
itb=system.processor.cores.core.mmu.itb

[system.processor.cores.core.mmu.dtb]
type=X86TLB
children=walker
entry_type=data
eventq_index=0
next_level=Null
size=64
system=system
walker=system.processor.cores.core.mmu.dtb.walker

[system.processor.cores.core.mmu.dtb.walker]
type=X86PagetableWalker
children=power_state
clk_domain=system.clk_domain
eventq_index=0
num_squash_per_cycle=4
power_model=
power_state=system.processor.cores.core.mmu.dtb.walker.power_state
system=system
port=system.cache_hierarchy.dptw_caches.cpu_side

[system.processor.cores.core.mmu.dtb.walker.power_state]
type=PowerState
clk_gate_bins=20
clk_gate_max=1000000000000
clk_gate_min=1000
default_state=UNDEFINED
eventq_index=0
leaders=
possible_states=

[system.processor.cores.core.mmu.itb]
type=X86TLB
children=walker
entry_type=instruction
eventq_index=0
next_level=Null
size=64
system=system
walker=system.processor.cores.core.mmu.itb.walker

[system.processor.cores.core.mmu.itb.walker]
type=X86PagetableWalker
children=power_state
clk_domain=system.clk_domain
eventq_index=0
num_squash_per_cycle=4
power_model=
power_state=system.processor.cores.core.mmu.itb.walker.power_state
system=system
port=system.cache_hierarchy.iptw_caches.cpu_side

[system.processor.cores.core.mmu.itb.walker.power_state]
type=PowerState
clk_gate_bins=20
clk_gate_max=1000000000000
clk_gate_min=1000
default_state=UNDEFINED
eventq_index=0
leaders=
possible_states=

[system.processor.cores.core.power_state]
type=PowerState
clk_gate_bins=20
clk_gate_max=1000000000000
clk_gate_min=1000
default_state=UNDEFINED
eventq_index=0
leaders=
possible_states=ON CLK_GATED OFF

[system.processor.cores.core.tracer]
type=ExeTracer
eventq_index=0

[system.processor.cores.core.workload]
type=Process
cmd=/home/chenrc/.cache/gem5/x86-hello64-static
cwd=/home/chenrc/gem5-23.0.1.0
drivers=
egid=100
env=
errout=cerr
euid=100
eventq_index=0
executable=/home/chenrc/.cache/gem5/x86-hello64-static
gid=100
input=cin
kvmInSE=false
maxStackSize=67108864
output=cout
pgid=100
pid=100
ppid=0
release=5.1.0
simpoint=0
system=system
uid=100
useArchPT=false

[system.workload]
type=X86EmuLinux
eventq_index=0
remote_gdb_port=#7000
wait_for_remote_gdb=false

